Casos/pglib_opf_case240_pserc/datosLineas.csv
fbus;tbus;r;x;b;rateA;rateB;rateC;ratio;angle;status;angmin;angmax
1001;1201;0.00177;0.03169;3.3446;996;996;996;0;0;1;-30;30
1001;1202;0.0108;0.0965;0.3296;326;326;326;0;0;1;-30;30
1002;1004;0.0005;0.0053;0.0882;5934;5934;5934;0;0;1;-30;30
1002;1102;0.00179;0.01988;2.576;1583;1583;1583;0;0;1;-30;30
1002;1102;0.00179;0.01988;2.576;1583;1583;1583;0;0;1;-30;30
1002;6506;0.0048;0.0436;0.7078;721;721;721;0;0;1;-30;30
1004;7001;0.03903;0.27403;2;115;115;115;0;0;1;-30;30
1004;7002;0.00977;0.11;2;287;287;287;0;0;1;-30;30
1101;1401;0.0028;0.0211;1.0194;1485;1485;1485;0;0;1;-30;30
1101;1401;0.0028;0.0211;1.0194;1485;1485;1485;0;0;1;-30;30
1201;1202;0.00077;0.00536;1.39842;5834;5834;5834;0;0;1;-30;30
1201;1402;0.00179;0.02592;3.3922;1216;1216;1216;0;0;1;-30;30
1201;2901;0.00207;0.01369;3.9516;2282;2282;2282;0;0;1;-30;30
1202;1302;0.0028;0.0211;1.0194;1485;1485;1485;0;0;1;-30;30
1202;1402;0.00241;0.03489;4.8656;904;904;904;0;0;1;-30;30
1301;1302;0.0028;0.0211;1.0194;1485;1485;1485;0;0;1;-30;30
1301;1402;0.0028;0.0211;1.0194;1485;1485;1485;0;0;1;-30;30
1301;1402;0.0062;0.0673;1.1156;468;468;468;0;0;1;-30;30
1301;2603;0.00179;0.02524;0.53546;1249;1249;1249;0;0;1;-30;30
1301;2901;0.0108;0.0965;0.3296;326;326;326;0;0;1;-30;30
1303;6507;0.00811;0.1369;1.1156;231;231;231;0;0;1;-30;30
1401;1402;0.0004;0.0096;0.9038;3288;3288;3288;0;0;1;-30;30
1401;1402;0.0004;0.0096;0.9038;3288;3288;3288;0;0;1;-30;30
1401;2301;0.00259;0.02967;2.153;1061;1061;1061;0;0;1;-30;30
1401;2400;0.00259;0.02967;2.153;1061;1061;1061;0;0;1;-30;30
1403;2100;0.00845;0.07034;0.15954;446;446;446;0;0;1;-30;30
2000;2202;0.00138;0.05399;0.15252;585;585;585;0;0;1;-30;30
2000;2302;0.00138;0.05399;0.15252;585;585;585;0;0;1;-30;30
2100;2302;0.00845;0.07034;0.15954;446;446;446;0;0;1;-30;30
2201;2301;0.00179;0.02524;2.153;1249;1249;1249;0;0;1;-30;30
2202;2203;0.00312;0.02886;0.15252;1089;1089;1089;0;0;1;-30;30
2202;2203;0.00312;0.02886;0.15252;1089;1089;1089;0;0;1;-30;30
2202;2503;0.00312;0.02886;0.15252;1089;1089;1089;0;0;1;-30;30
2203;2503;0.00312;0.02886;0.15252;1089;1089;1089;0;0;1;-30;30
2203;2503;0.00312;0.02886;0.15252;1089;1089;1089;0;0;1;-30;30
2400;2403;0.00042;0.00905;0.66794;3487;3487;3487;0;0;1;-30;30
2401;2402;0.00028;0.00753;0.51736;4192;4192;4192;0;0;1;-30;30
2401;2402;0.00035;0.0075;0.5536;4208;4208;4208;0;0;1;-30;30
2401;2404;0.00044;0.01125;0.8292;2806;2806;2806;0;0;1;-30;30
2401;2404;0.00044;0.01125;0.8292;2806;2806;2806;0;0;1;-30;30
2401;2501;0.0006;0.0128;0.9462;2466;2466;2466;0;0;1;-30;30
2401;2603;0.0002;0.0041;0.2962;7696;7696;7696;0;0;1;-30;30
2401;2901;0.00193;0.02779;4.6712;1134;1134;1134;0;0;1;-30;30
2401;2902;0.0019;0.031;4.1402;1018;1018;1018;0;0;1;-30;30
2402;2501;0.00021;0.00457;0.32336;6905;6905;6905;0;0;1;-30;30
2403;2501;0.0004;0.0093;0.6856;3394;3394;3394;0;0;1;-30;30
2404;3893;0;-0.00935;0;3379;3379;3379;0;0;1;-30;30
2404;3895;0;-0.00935;0;3379;3379;3379;0;0;1;-30;30
2404;3897;0;-0.0084;0;3761;3761;3761;0;0;1;-30;30
2405;2406;0.0014;0.0264;0.102;1195;1195;1195;0;0;1;-30;30
2405;2410;0.00065;0.01187;0.04672;2658;2658;2658;0;0;1;-30;30
2405;2410;0.00065;0.01187;0.04672;2658;2658;2658;0;0;1;-30;30
2406;2408;0.0019;0.0258;0.0984;1222;1222;1222;0;0;1;-30;30
2406;2410;0.00845;0.07034;0.15954;446;446;446;0;0;1;-30;30
2407;2408;0.0011;0.0127;0.048;2478;2478;2478;0;0;1;-30;30
2408;2409;0.00138;0.05399;0.15252;585;585;585;0;0;1;-30;30
2408;2409;0.00138;0.05399;0.15252;585;585;585;0;0;1;-30;30
2408;2411;0.0032;0.0395;0.144;798;798;798;0;0;1;-30;30
2408;2502;0.00312;0.02886;0.15252;1089;1089;1089;0;0;1;-30;30
2409;2502;0.00312;0.02886;0.15252;1089;1089;1089;0;0;1;-30;30
2409;2503;0.00312;0.02886;0.15252;1089;1089;1089;0;0;1;-30;30
2410;2411;0.00285;0.03649;0.12656;864;864;864;0;0;1;-30;30
2410;2411;0.00138;0.03399;0.11252;929;929;929;0;0;1;-30;30
2502;2503;0.00312;0.02886;0.15252;1089;1089;1089;0;0;1;-30;30
2502;2503;0.00312;0.02886;0.15252;1089;1089;1089;0;0;1;-30;30
2901;2902;0.00056;0.01415;1.0429;2231;2231;2231;0;0;1;-30;30
2600;2602;0.00082;0.01668;1.18802;1892;1892;1892;0;0;1;-30;30
2600;2603;0;0.00159;0.12002;19867;19867;19867;0;0;1;-30;30
2600;2603;0;0.00159;0.12002;19867;19867;19867;0;0;1;-30;30
2600;2601;0.00074;0.01861;1.40264;1696;1696;1696;0;0;1;-30;30
2601;2603;0.00083;0.01884;1.66668;1675;1675;1675;0;0;1;-30;30
2603;2901;0.00179;0.02524;0.53546;1249;1249;1249;0;0;1;-30;30
2604;6404;0.0108;0.0965;0.3296;326;326;326;0;0;1;-30;30
2604;6504;0.0018;0.0245;0.4392;1286;1286;1286;0;0;1;-30;30
2604;6504;0.0018;0.0245;0.4392;1286;1286;1286;0;0;1;-30;30
2605;2607;0.0107;0.07905;0.3667;396;396;396;0;0;1;-30;30
2606;2607;0.0107;0.07905;0.3667;396;396;396;0;0;1;-30;30
2608;2611;0.00221;0.03346;0.07338;942;942;942;0;0;1;-30;30
2608;2612;0.0029;0.038;0.0824;829;829;829;0;0;1;-30;30
2608;2618;0.00309;0.04677;0.1008;674;674;674;0;0;1;-30;30
2608;2619;0.00226;0.03422;0.07506;922;922;922;0;0;1;-30;30
2609;2615;0.00047;0.00723;0.01624;4360;4360;4360;0;0;1;-30;30
2609;2617;0.00035;0.00536;0.01204;5881;5881;5881;0;0;1;-30;30
2610;2613;0.0022;0.03422;0.07716;922;922;922;0;0;1;-30;30
2610;2613;0.00238;0.03669;0.08284;860;860;860;0;0;1;-30;30
2610;2616;0.00201;0.03074;0.06886;1026;1026;1026;0;0;1;-30;30
2610;2617;0.00281;0.04296;0.09648;734;734;734;0;0;1;-30;30
2611;2612;0.00029;0.00434;0.0095;7262;7262;7262;0;0;1;-30;30
2612;2615;0.00229;0.01583;0.0306;1975;1975;1975;0;0;1;-30;30
2612;2615;0.00229;0.01583;0.0306;1975;1975;1975;0;0;1;-30;30
2612;2618;0.00141;0.00967;0.0194;3233;3233;3233;0;0;1;-30;30
2612;2618;0.00141;0.00967;0.0194;3233;3233;3233;0;0;1;-30;30
2612;2618;0.00161;0.00971;0.01928;3210;3210;3210;0;0;1;-30;30
2612;2618;0.00161;0.00971;0.01928;3210;3210;3210;0;0;1;-30;30
2612;2619;0.00027;0.00393;0.00918;8019;8019;8019;0;0;1;-30;30
2612;2619;0.00027;0.00393;0.00918;8019;8019;8019;0;0;1;-30;30
2612;2619;0.00027;0.00393;0.00918;8019;8019;8019;0;0;1;-30;30
2612;2620;0.00138;0.01116;0.0247;2810;2810;2810;0;0;1;-30;30
2612;2620;0.00138;0.01116;0.0247;2810;2810;2810;0;0;1;-30;30
2613;2616;0.00037;0.00366;0.0083;8587;8587;8587;0;0;1;-30;30
2613;2617;0.00055;0.00586;0.01246;5367;5367;5367;0;0;1;-30;30
2614;2616;0.00073;0.01025;0.02558;3074;3074;3074;0;0;1;-30;30
2614;2616;0.00073;0.01025;0.02558;3074;3074;3074;0;0;1;-30;30
2615;2617;0.00119;0.01244;0.02798;2528;2528;2528;0;0;1;-30;30
2615;2617;0.00119;0.01244;0.02798;2528;2528;2528;0;0;1;-30;30
2615;2620;0.00128;0.00979;0.0212;3200;3200;3200;0;0;1;-30;30
2616;2617;0.0011;0.01189;0.02514;2646;2646;2646;0;0;1;-30;30
3101;3102;0.0011;0.0127;0.048;2478;2478;2478;0;0;1;-30;30
3101;3102;0.0011;0.0127;0.048;2478;2478;2478;0;0;1;-30;30
3102;3103;0.0011;0.0127;0.048;2478;2478;2478;0;0;1;-30;30
3102;3103;0.0011;0.0127;0.048;2478;2478;2478;0;0;1;-30;30
3102;3103;0.0011;0.0127;0.048;2478;2478;2478;0;0;1;-30;30
3102;3302;0.0011;0.0127;0.048;2478;2478;2478;0;0;1;-30;30
3103;3204;0.0011;0.0127;0.048;2478;2478;2478;0;0;1;-30;30
3103;3204;0.0011;0.0127;0.048;2478;2478;2478;0;0;1;-30;30
3103;3305;0.0011;0.0127;0.048;2478;2478;2478;0;0;1;-30;30
3103;3305;0.0011;0.0127;0.048;2478;2478;2478;0;0;1;-30;30
3104;3105;0.00312;0.02886;0.15252;1089;1089;1089;0;0;1;-30;30
3201;3202;0.0011;0.0127;0.048;2478;2478;2478;0;0;1;-30;30
3201;3202;0.0011;0.0127;0.048;2478;2478;2478;0;0;1;-30;30
3201;3203;0.0011;0.0127;0.048;2478;2478;2478;0;0;1;-30;30
3201;3203;0.0011;0.0127;0.048;2478;2478;2478;0;0;1;-30;30
3201;3923;0.00312;0.02886;0.15252;1089;1089;1089;0;0;1;-30;30
3201;3923;0.00312;0.02886;0.15252;1089;1089;1089;0;0;1;-30;30
3201;3924;0.0011;0.0127;0.048;2478;2478;2478;0;0;1;-30;30
3201;3924;0.0011;0.0127;0.048;2478;2478;2478;0;0;1;-30;30
3202;3203;0.0011;0.0127;0.048;2478;2478;2478;0;0;1;-30;30
3202;3203;0.00312;0.02886;0.15252;1089;1089;1089;0;0;1;-30;30
3202;3204;0.0011;0.0127;0.048;2478;2478;2478;0;0;1;-30;30
3202;3205;0.0011;0.0127;0.048;2478;2478;2478;0;0;1;-30;30
3202;3924;0.00312;0.02886;0.15252;1089;1089;1089;0;0;1;-30;30
3202;3924;0.00312;0.02886;0.15252;1089;1089;1089;0;0;1;-30;30
3203;3204;0.0011;0.0127;0.048;2478;2478;2478;0;0;1;-30;30
3203;3303;0.0011;0.0127;0.048;2478;2478;2478;0;0;1;-30;30
3203;3303;0.00312;0.02886;0.15252;1089;1089;1089;0;0;1;-30;30
3203;3305;0.0011;0.0127;0.048;2478;2478;2478;0;0;1;-30;30
3203;3923;0.00312;0.02886;0.15252;1089;1089;1089;0;0;1;-30;30
3203;3923;0.00312;0.02886;0.15252;1089;1089;1089;0;0;1;-30;30
3204;3205;0.0011;0.0127;0.048;2478;2478;2478;0;0;1;-30;30
3204;3205;0.0011;0.0127;0.048;2478;2478;2478;0;0;1;-30;30
3204;3923;0.00312;0.02886;0.15252;1089;1089;1089;0;0;1;-30;30
3204;3923;0.00312;0.02886;0.15252;1089;1089;1089;0;0;1;-30;30
3205;3914;0.00312;0.02886;0.15252;1089;1089;1089;0;0;1;-30;30
3205;3915;0.00312;0.02886;0.15252;1089;1089;1089;0;0;1;-30;30
3301;3902;0.00053;0.01297;0;2434;2434;2434;0;0;1;-30;30
3301;3903;0.00001;-0.00755;0;4184;4184;4184;0;0;1;-30;30
3302;3304;0.0011;0.0127;0.048;2478;2478;2478;0;0;1;-30;30
3302;3304;0.0011;0.0127;0.048;2478;2478;2478;0;0;1;-30;30
3303;3304;0.0011;0.0127;0.048;2478;2478;2478;0;0;1;-30;30
3303;3304;0.0011;0.0127;0.048;2478;2478;2478;0;0;1;-30;30
3303;3304;0.0011;0.0127;0.048;2478;2478;2478;0;0;1;-30;30
3303;3918;0.00312;0.02886;0.15252;1089;1089;1089;0;0;1;-30;30
3303;3918;0.00312;0.02886;0.15252;1089;1089;1089;0;0;1;-30;30
3305;3923;0.00312;0.02886;0.15252;1089;1089;1089;0;0;1;-30;30
3401;3402;0.00312;0.02886;0.15252;1089;1089;1089;0;0;1;-30;30
3401;3402;0.00312;0.02886;0.15252;1089;1089;1089;0;0;1;-30;30
3401;3404;0.00312;0.02886;0.15252;1089;1089;1089;0;0;1;-30;30
3401;3405;0.00312;0.02886;0.15252;1089;1089;1089;0;0;1;-30;30
3401;3405;0.00312;0.02886;0.15252;1089;1089;1089;0;0;1;-30;30
3401;3804;0.00312;0.02886;0.15252;1089;1089;1089;0;0;1;-30;30
3403;3404;0.00312;0.02886;0.15252;1089;1089;1089;0;0;1;-30;30
3403;3804;0.00312;0.02886;0.15252;1089;1089;1089;0;0;1;-30;30
3404;3804;0.00312;0.02886;0.15252;1089;1089;1089;0;0;1;-30;30
3404;3804;0.00312;0.02886;0.15252;1089;1089;1089;0;0;1;-30;30
3404;3917;0.00312;0.02886;0.15252;1089;1089;1089;0;0;1;-30;30
3404;3918;0.00312;0.02886;0.15252;1089;1089;1089;0;0;1;-30;30
3405;3907;0.00312;0.02886;0.15252;1089;1089;1089;0;0;1;-30;30
3405;3907;0.00312;0.02886;0.15252;1089;1089;1089;0;0;1;-30;30
3501;3914;0.00312;0.02886;0.15252;1089;1089;1089;0;0;1;-30;30
3501;3915;0.00312;0.02886;0.15252;1089;1089;1089;0;0;1;-30;30
3601;3925;0.00312;0.02886;0.15252;1089;1089;1089;0;0;1;-30;30
3701;3926;0.00312;0.02886;0.15252;1089;1089;1089;0;0;1;-30;30
3701;3926;0.00312;0.02886;0.15252;1089;1089;1089;0;0;1;-30;30
3801;3802;0.00079;0.01937;1.3285;1630;1630;1630;0;0;1;-30;30
3801;3803;0.00087;0.02087;1.4571;1513;1513;1513;0;0;1;-30;30
3801;3803;0.00087;0.02087;1.4571;1513;1513;1513;0;0;1;-30;30
3802;3891;0.00072;0.016;1.0879;1973;1973;1973;0;0;1;-30;30
3802;3901;0.00083;0.01985;0;1590;1590;1590;0;0;1;-30;30
3803;3891;0.00002;-0.00998;0;3166;3166;3166;0;0;1;-30;30
3803;3892;0;-0.00935;0;3379;3379;3379;0;0;1;-30;30
3803;3894;0;-0.00944;0;3347;3347;3347;0;0;1;-30;30
3803;3896;0;-0.00935;0;3379;3379;3379;0;0;1;-30;30
3803;3901;0.00153;0.0147;0;2138;2138;2138;0;0;1;-30;30
3804;3806;0.00312;0.02886;0.15252;1089;1089;1089;0;0;1;-30;30
3805;3806;0.00312;0.02886;0.15252;1089;1089;1089;0;0;1;-30;30
3892;3893;0.00123;0.02659;1.98702;1187;1187;1187;0;0;1;-30;30
3894;3895;0.00123;0.02662;1.9888;1186;1186;1186;0;0;1;-30;30
3896;3897;0.00112;0.02517;1.83586;1254;1254;1254;0;0;1;-30;30
3901;3902;0.00053;0.01297;0;2434;2434;2434;0;0;1;-30;30
3901;3903;0.00093;0.03644;1.3895;867;867;867;0;0;1;-30;30
3901;8002;0.00002;-0.01331;0;2374;2374;2374;0;0;1;-30;30
3903;3904;0.00001;-0.01098;0;2877;2877;2877;0;0;1;-30;30
3903;3905;0.00098;0.01035;0;3039;3039;3039;0;0;1;-30;30
3903;8002;0.00165;0.05719;2.4774;553;553;553;0;0;1;-30;30
3904;3905;0.0016;0.01229;0;2549;2549;2549;0;0;1;-30;30
3905;3906;0.00072;0.00346;0;8938;8938;8938;0;0;1;-30;30
3906;4001;0.00053;0.00456;0;6881;6881;6881;0;0;1;-30;30
3906;4001;0.00053;0.00456;0;6881;6881;6881;0;0;1;-30;30
3907;3908;0.00312;0.02886;0.15252;1089;1089;1089;0;0;1;-30;30
3907;3923;0.00312;0.02886;0.15252;1089;1089;1089;0;0;1;-30;30
3907;8004;0.01382;0.09268;0.1106;338;338;338;0;0;1;-30;30
3908;3920;0.00312;0.02886;0.15252;1089;1089;1089;0;0;1;-30;30
3909;3919;0.00312;0.02886;0.15252;1089;1089;1089;0;0;1;-30;30
3909;3920;0.00312;0.02886;0.15252;1089;1089;1089;0;0;1;-30;30
3910;3911;0.02482;0.16938;0.20232;185;185;185;0;0;1;-30;30
3910;3924;0.0148;0.10101;0.12066;310;310;310;0;0;1;-30;30
3911;3912;0.01382;0.09268;0.1106;338;338;338;0;0;1;-30;30
3911;3916;0.01668;0.11381;0.13608;275;275;275;0;0;1;-30;30
3911;3921;0.01113;0.06678;0.07286;467;467;467;0;0;1;-30;30
3911;3921;0.0105;0.0654;0.0686;477;477;477;0;0;1;-30;30
3911;3921;0.01105;0.06642;0.0716;470;470;470;0;0;1;-30;30
3911;3924;0.03903;0.27403;0.31072;115;115;115;0;0;1;-30;30
3911;8003;0.01382;0.09268;0.1106;338;338;338;0;0;1;-30;30
3911;8003;0.01382;0.09268;0.1106;338;338;338;0;0;1;-30;30
3912;3924;0.03058;0.2046;0.24472;153;153;153;0;0;1;-30;30
3913;3920;0.00312;0.02886;0.15252;1089;1089;1089;0;0;1;-30;30
3913;3920;0.00312;0.02886;0.15252;1089;1089;1089;0;0;1;-30;30
3913;3923;0.00312;0.02886;0.15252;1089;1089;1089;0;0;1;-30;30
3913;8004;0.01382;0.09268;0.1106;338;338;338;0;0;1;-30;30
3915;3924;0.00312;0.02886;0.15252;1089;1089;1089;0;0;1;-30;30
3916;3924;0.02235;0.16106;0.18342;195;195;195;0;0;1;-30;30
3919;3922;0.00312;0.02886;0.15252;1089;1089;1089;0;0;1;-30;30
3920;3922;0.00312;0.02886;0.15252;1089;1089;1089;0;0;1;-30;30
3923;8005;0.01382;0.09268;0.1106;338;338;338;0;0;1;-30;30
3923;8005;0.01382;0.09268;0.1106;338;338;338;0;0;1;-30;30
4001;4204;0.00078;0.00239;1.1381;12565;12565;12565;0;0;1;-30;30
4001;4090;0.00072;0.01382;1.27572;2283;2283;2283;0;0;1;-30;30
4001;4094;0.00078;0.01502;1.1381;2101;2101;2101;0;0;1;-30;30
4001;4097;0.00074;0.01413;1.06634;2233;2233;2233;0;0;1;-30;30
4001;8001;0.00106;0.01293;0;2435;2435;2435;0;0;1;-30;30
4002;4003;0.00122;0.02373;2.2071;1330;1330;1330;0;0;1;-30;30
4002;4090;0.00012;0.00238;0.21926;13256;13256;13256;0;0;1;-30;30
4002;4091;0.0006;0.01036;1.01456;3044;3044;3044;0;0;1;-30;30
4003;6101;0.00264;0.02689;5.29066;1170;1170;1170;0;0;1;-30;30
4004;4005;0.00063;0.01412;1.09756;2235;2235;2235;0;0;1;-30;30
4004;4005;0.00109;0.02408;1.55542;1311;1311;1311;0;0;1;-30;30
4004;4005;0.00108;0.02409;1.55348;1310;1310;1310;0;0;1;-30;30
4004;4091;0.00041;0.00737;0.72694;4280;4280;4280;0;0;1;-30;30
4004;4092;0.00066;0.01266;0.95976;2492;2492;2492;0;0;1;-30;30
4004;4095;0.00066;0.01266;0.95976;2492;2492;2492;0;0;1;-30;30
4005;4006;0.00023;0.00451;0.3332;6995;6995;6995;0;0;1;-30;30
4005;4006;0.0002;0.00446;0.305;7076;7076;7076;0;0;1;-30;30
4005;4102;0.0012;0.02316;1.7152;1363;1363;1363;0;0;1;-30;30
4005;4102;0.0003;0.02;3.6;1580;1580;1580;0;0;1;-30;30
4005;4202;0.0002;0.0082;1.3;3851;3851;3851;0;0;1;-30;30
4005;6202;0.00196;0.03304;1.88;955;955;955;0;0;1;-30;30
4006;4007;0.00001;0.0003;0.01434;105233;105233;105233;0;0;1;-30;30
4006;4007;0.00001;0.0003;0.01844;105233;105233;105233;0;0;1;-30;30
4006;4202;0.0002;0.0082;1.3;3851;3851;3851;0;0;1;-30;30
4008;6401;0.0062;0.0673;1.1156;468;468;468;0;0;1;-30;30
4009;4010;0.00006;0.00131;0.00378;24088;24088;24088;0;0;1;-30;30
4009;4010;0.00006;0.00116;0.00332;27195;27195;27195;0;0;1;-30;30
4009;4104;0.002;0.02;0.8;1572;1572;1572;0;0;1;-30;30
4092;4093;0;0.00165;0;19144;19144;19144;0;0;1;-30;30
4093;4094;0;-0.01263;0;2501;2501;2501;0;0;1;-30;30
4095;4096;0;0.00165;0;19144;19144;19144;0;0;1;-30;30
4096;4097;0;-0.01263;0;2501;2501;2501;0;0;1;-30;30
4101;4102;0.00113;0.02069;1.85526;1525;1525;1525;0;0;1;-30;30
4101;4102;0.00113;0.02069;1.85526;1525;1525;1525;0;0;1;-30;30
4101;4103;0.0007;0.074;4.87;427;427;427;0;0;1;-30;30
4101;4103;0.002;0.02;0.8;1572;1572;1572;0;0;1;-30;30
4101;4201;0.0002;0.0082;1.3;3851;3851;3851;0;0;1;-30;30
4101;4201;0.0002;0.0082;1.3;3851;3851;3851;0;0;1;-30;30
4102;4201;0.0002;0.0082;1.3;3851;3851;3851;0;0;1;-30;30
4102;4201;0.0002;0.0082;1.3;3851;3851;3851;0;0;1;-30;30
4102;4202;0.0002;0.0082;1.3;3851;3851;3851;0;0;1;-30;30
4102;4202;0.0002;0.0082;1.3;3851;3851;3851;0;0;1;-30;30
4102;6202;0.00142;0.02258;1.88;1397;1397;1397;0;0;1;-30;30
4103;6202;0.0007;0.074;4.87;427;427;427;0;0;1;-30;30
4104;5004;0.002;0.02;0.8;1572;1572;1572;0;0;1;-30;30
4201;4202;0.00109;0.02408;1.55542;1311;1311;1311;0;0;1;-30;30
4201;5001;0.00083;0.0239;3.3;1321;1321;1321;0;0;1;-30;30
4202;4203;0.00066;0.00165;0.95976;17775;17775;17775;0;0;1;-30;30
4203;4204;0.00074;0.01266;1.0822;2491;2491;2491;0;0;1;-30;30
5001;5002;0.0035;0.07;4.606;451;451;451;0;0;1;-30;30
5003;5004;0.002;0.02;0.8;1572;1572;1572;0;0;1;-30;30
6102;6103;0.0012;0.02316;1.7152;1363;1363;1363;0;0;1;-30;30
6102;6301;0;0.0046;0;6867;6867;6867;0;0;1;-30;30
6102;6403;0.0062;0.0673;1.1156;468;468;468;0;0;1;-30;30
6103;6301;0;0.0046;0;6867;6867;6867;0;0;1;-30;30
6103;6301;0;0.0046;0;6867;6867;6867;0;0;1;-30;30
6103;6501;0.0062;0.0673;1.1156;468;468;468;0;0;1;-30;30
6103;6501;0.0062;0.0673;1.1156;468;468;468;0;0;1;-30;30
6104;6204;0.0108;0.0965;0.3296;326;326;326;0;0;1;-30;30
6104;6305;0.0108;0.0965;0.3296;326;326;326;0;0;1;-30;30
6201;6202;0.00179;0.01405;3.68;2231;2231;2231;0;0;1;-30;30
6203;6205;0.0007;0.074;4.87;427;427;427;0;0;1;-30;30
6204;6205;0.0007;0.025;4.87;1263;1263;1263;0;0;1;-30;30
6203;6303;0.0108;0.0965;0.3296;326;326;326;0;0;1;-30;30
6203;6303;0.0108;0.0965;0.3296;326;326;326;0;0;1;-30;30
6203;6304;0.0108;0.0965;0.3296;326;326;326;0;0;1;-30;30
6302;7001;0;0.0046;0;6867;6867;6867;0;0;1;-30;30
6303;6304;0.0108;0.0965;0.3296;326;326;326;0;0;1;-30;30
6303;6305;0.0108;0.0965;0.3296;326;326;326;0;0;1;-30;30
6303;6305;0.0108;0.0965;0.3296;326;326;326;0;0;1;-30;30
6305;6510;0.0108;0.0965;0.3296;326;326;326;0;0;1;-30;30
6305;6510;0.0108;0.0965;0.3296;326;326;326;0;0;1;-30;30
6401;6403;0.0062;0.0673;1.1156;468;468;468;0;0;1;-30;30
6401;6403;0.0062;0.0673;1.1156;468;468;468;0;0;1;-30;30
6401;6404;0.0108;0.0965;0.3296;326;326;326;0;0;1;-30;30
6403;6404;0.0062;0.0673;1.1156;468;468;468;0;0;1;-30;30
6404;6507;0.0108;0.0965;0.3296;326;326;326;0;0;1;-30;30
6501;6502;0.0024;0.00332;0.5849;7711;7711;7711;0;0;1;-30;30
6501;6504;0.0021;0.00238;0.3845;9952;9952;9952;0;0;1;-30;30
6501;6509;0.0016;0.00226;0.381;11408;11408;11408;0;0;1;-30;30
6501;6509;0.0016;0.00226;0.381;11408;11408;11408;0;0;1;-30;30
6502;6503;0.0052;0.0602;1.01;523;523;523;0;0;1;-30;30
6502;6503;0.0049;0.0537;0.8843;586;586;586;0;0;1;-30;30
6502;6504;0.0017;0.00225;0.3992;11202;11202;11202;0;0;1;-30;30
6502;6504;0.0021;0.00238;0.3845;9952;9952;9952;0;0;1;-30;30
6502;6504;0.0017;0.00225;0.3992;11202;11202;11202;0;0;1;-30;30
6502;6504;0.0021;0.00238;0.3845;9952;9952;9952;0;0;1;-30;30
6502;6508;0.0012;0.0172;0.2987;1833;1833;1833;0;0;1;-30;30
6502;6509;0.0008;0.00106;0.2039;23786;23786;23786;0;0;1;-30;30
6502;6509;0.0008;0.00106;0.2039;23786;23786;23786;0;0;1;-30;30
6503;6504;0.0032;0.0349;0.5722;902;902;902;0;0;1;-30;30
6503;6505;0.0096;0.0878;1.4265;358;358;358;0;0;1;-30;30
6503;6507;0.0034;0.0374;0.6208;842;842;842;0;0;1;-30;30
6503;6507;0.0034;0.0372;0.6182;846;846;846;0;0;1;-30;30
6503;6508;0.0034;0.0392;0.6524;803;803;803;0;0;1;-30;30
6504;6507;0.0038;0.034;0.5824;924;924;924;0;0;1;-30;30
6504;6507;0.0032;0.0349;0.5722;902;902;902;0;0;1;-30;30
6504;7002;0.00811;0.1369;2.4348;231;231;231;0;0;1;-30;30
7001;7002;0;0.0046;0;6867;6867;6867;0;0;1;-30;30
8001;8002;0.00159;0.0111;0;2817;2817;2817;0;0;1;-30;30
8003;8004;0.01952;0.13702;0.15536;229;229;229;0;0;1;-30;30
8003;8005;0.03903;0.27403;0.31072;115;115;115;0;0;1;-30;30
8003;8005;0.03903;0.27403;0.31072;115;115;115;0;0;1;-30;30
8004;8005;0.01952;0.13702;0.15536;229;229;229;0;0;1;-30;30
1001;1002;0;0.011;0;2872;2872;2872;1;0;1;-30;30
1001;1002;0;0.011;0;2872;2872;2872;1;0;1;-30;30
1002;1003;0.00028;0.0138;0;2289;2289;2289;1;0;1;-30;30
1002;1003;0.00029;0.0139;0;2272;2272;2272;1;0;1;-30;30
1101;1102;0;0.0146;0;2164;2164;2164;1;0;1;-30;30
1101;1102;0;0.0146;0;2164;2164;2164;1;0;1;-30;30
1302;1303;0;0.0072;0;4388;4388;4388;1;0;1;-30;30
1401;1403;0.00028;0.0138;0;2289;2289;2289;1;0;1;-30;30
2100;2400;0.00028;0.0138;0;2289;2289;2289;1;0;1;-30;30
2201;2202;0;0.005;0;6318;6318;6318;1;0;1;-30;30
2201;2202;0;0.005;0;6318;6318;6318;1;0;1;-30;30
2301;2302;0;0.005;0;6318;6318;6318;1;0;1;-30;30
2301;2302;0;0.005;0;6318;6318;6318;1;0;1;-30;30
2402;2409;0;0.005;0;6318;6318;6318;1;0;1;-30;30
2404;2411;0;0.01149;0;2750;2750;2750;1;0;1;-30;30
2404;2411;0;0.01149;0;2750;2750;2750;1;0;1;-30;30
2404;2411;0;0.01149;0;2750;2750;2750;1;0;1;-30;30
2405;2619;0;0.00115;0;27468;27468;27468;0;0;1;-30;30
2501;2502;0;0.005;0;6318;6318;6318;1;0;1;-30;30
2501;2502;0;0.005;0;6318;6318;6318;1;0;1;-30;30
2501;2502;0;0.005;0;6318;6318;6318;1;0;1;-30;30
2601;2612;0.00026;0.01386;0;2279;2279;2279;1;0;1;-30;30
2602;2615;0.00013;0.01386;0;2279;2279;2279;1;0;1;-30;30
2602;2615;0.00013;0.01386;0;2279;2279;2279;1;0;1;-30;30
2603;2607;0.0002;0.02338;0;1351;1351;1351;1;0;1;-30;30
2605;2621;0.00059;0.01491;0;2117;2117;2117;1;0;1;-30;30
2606;2621;0.00059;0.01491;0;2117;2117;2117;1;0;1;-30;30
2614;2621;0.0003;0.0133;0;2375;2375;2375;1;0;1;-30;30
2614;2621;0.0003;0.0134;0;2357;2357;2357;1;0;1;-30;30
3102;3104;0.00089;0.0299;0;1056;1056;1056;1;0;1;-30;30
3301;3303;0.0003;0.0174;0;1816;1816;1816;1;0;1;-30;30
3301;3303;0.0003;0.0174;0;1816;1816;1816;1;0;1;-30;30
3301;3303;0.0003;0.0174;0;1816;1816;1816;1;0;1;-30;30
3701;6402;0.00089;0.0299;0;1056;1056;1056;0;0;1;-30;30
3701;6402;0.00089;0.0299;0;1056;1056;1056;0;0;1;-30;30
3802;3804;0.0003;0.0174;0;1816;1816;1816;1;0;1;-30;30
3803;3805;0.0003;0.0174;0;1816;1816;1816;1;0;1;-30;30
3803;3805;0.0002;0.0119;0;2655;2655;2655;1;0;1;-30;30
3901;3917;0.0003;0.0174;0;1816;1816;1816;1;0;1;-30;30
3902;3918;0.0003;0.0174;0;1816;1816;1816;1;0;1;-30;30
3903;3923;0.0003;0.0174;0;1816;1816;1816;1;0;1;-30;30
3904;3924;0.0002;0.0125;0;2527;2527;2527;1;0;1;-30;30
3905;3922;0.0003;0.0174;0;1816;1816;1816;1;0;1;-30;30
3906;3921;0.0001;0.0174;0;1816;1816;1816;1;0;1;-30;30
3911;3925;0.00089;0.0299;0;1056;1056;1056;1;0;1;-30;30
3920;3926;0.00089;0.0299;0;1056;1056;1056;1;0;1;-30;30
3920;3926;0.00089;0.0299;0;1056;1056;1056;1;0;1;-30;30
4001;4008;0;0.0072;0;4388;4388;4388;1;0;1;-30;30
4006;4009;0.0002;0.01181;0;2675;2675;2675;1;0;1;-30;30
4006;4009;0.00009;0.00735;0;4298;4298;4298;1;0;1;-30;30
4007;4010;0;0.00221;0;14293;14293;14293;1;0;1;-30;30
4103;4104;0;0.01;0;3159;3159;3159;1;0;1;-30;30
5002;5003;0;0.01;0;3159;3159;3159;1;0;1;-30;30
6101;6102;0;0.0072;0;4388;4388;4388;1;0;1;-30;30
6103;6104;0.0003;0.0181;0;1745;1745;1745;1;0;1;-30;30
6201;6203;0.0003;0.0181;0;1745;1745;1745;1;0;1;-30;30
6202;6204;0.0003;0.0181;0;1745;1745;1745;1;0;1;-30;30
6301;6303;0.0003;0.0181;0;1745;1745;1745;1;0;1;-30;30
6302;6304;0.0003;0.0181;0;1745;1745;1745;1;0;1;-30;30
6401;6402;0.00089;0.0299;0;1056;1056;1056;1;0;1;-30;30
6401;6402;0.00089;0.0299;0;1056;1056;1056;1;0;1;-30;30
6501;6510;0.0003;0.0181;0;1745;1745;1745;1;0;1;-30;30
6501;6510;0.0003;0.0181;0;1745;1745;1745;1;0;1;-30;30
6505;6506;0;0.0195;0;1620;1620;1620;0;0;1;-30;30
8001;8003;0.0001;0.0174;0;1816;1816;1816;1;0;1;-30;30
8002;8005;0.0003;0.0174;0;1816;1816;1816;1;0;1;-30;30
1002;1032;0;0.0005;0;63175;63175;63175;1;0;1;-30;30
1004;1034;0;0.0005;0;63175;63175;63175;1;0;1;-30;30
1101;1131;0;0.0005;0;63175;63175;63175;1;0;1;-30;30
1202;1232;0;0.0005;0;63175;63175;63175;1;0;1;-30;30
1301;1331;0;0.0005;0;63175;63175;63175;1;0;1;-30;30
1303;1333;0;0.0005;0;63175;63175;63175;1;0;1;-30;30
1401;1431;0;0.0005;0;63175;63175;63175;1;0;1;-30;30
2000;2030;0;0.0005;0;63175;63175;63175;1;0;1;-30;30
2100;2130;0;0.0005;0;63175;63175;63175;1;0;1;-30;30
2203;2233;0;0.0005;0;63175;63175;63175;1;0;1;-30;30
2302;2332;0;0.0005;0;63175;63175;63175;1;0;1;-30;30
2408;2438;0;0.0005;0;63175;63175;63175;1;0;1;-30;30
2503;2533;0;0.0005;0;63175;63175;63175;1;0;1;-30;30
2604;2634;0;0.0005;0;63175;63175;63175;1;0;1;-30;30
2608;2638;0;0.0005;0;63175;63175;63175;1;0;1;-30;30
2610;2630;0;0.0005;0;63175;63175;63175;1;0;1;-30;30
2611;2631;0;0.0005;0;63175;63175;63175;1;0;1;-30;30
2612;2637;0;0.0005;0;63175;63175;63175;1;0;1;-30;30
3103;3133;0;0.0005;0;63175;63175;63175;1;0;1;-30;30
3105;3135;0;0.0005;0;63175;63175;63175;1;0;1;-30;30
3204;3234;0;0.0005;0;63175;63175;63175;1;0;1;-30;30
3303;3333;0;0.0005;0;63175;63175;63175;1;0;1;-30;30
3402;3432;0;0.0005;0;63175;63175;63175;1;0;1;-30;30
3403;3433;0;0.0005;0;63175;63175;63175;1;0;1;-30;30
3501;3531;0;0.0005;0;63175;63175;63175;1;0;1;-30;30
3601;3631;0;0.0005;0;63175;63175;63175;1;0;1;-30;30
3701;3731;0;0.0005;0;63175;63175;63175;1;0;1;-30;30
3801;3831;0;0.0005;0;63175;63175;63175;1;0;1;-30;30
3805;3835;0;0.0005;0;63175;63175;63175;1;0;1;-30;30
3806;3836;0;0.0005;0;63175;63175;63175;1;0;1;-30;30
3902;3932;0;0.0005;0;63175;63175;63175;1;0;1;-30;30
3921;3931;0;0.0005;0;63175;63175;63175;1;0;1;-30;30
3923;3933;0;0.0005;0;63175;63175;63175;1;0;1;-30;30
4001;4031;0;0.0005;0;63175;63175;63175;1;0;1;-30;30
4005;4035;0;0.0005;0;63175;63175;63175;1;0;1;-30;30
4009;4039;0;0.0005;0;63175;63175;63175;1;0;1;-30;30
4101;4131;0;0.0005;0;63175;63175;63175;1;0;1;-30;30
4102;4132;0;0.0005;0;63175;63175;63175;1;0;1;-30;30
4201;4231;0;0.0005;0;63175;63175;63175;1;0;1;-30;30
4202;4232;0;0.0005;0;63175;63175;63175;1;0;1;-30;30
5001;5031;0;0.0005;0;63175;63175;63175;1;0;1;-30;30
5002;5032;0;0.0005;0;63175;63175;63175;1;0;1;-30;30
6102;6132;0;0.0005;0;63175;63175;63175;1;0;1;-30;30
6201;6231;0;0.0005;0;63175;63175;63175;1;0;1;-30;30
6205;6235;0;0.0005;0;63175;63175;63175;1;0;1;-30;30
6303;6333;0;0.0005;0;63175;63175;63175;1;0;1;-30;30
6305;6335;0;0.0005;0;63175;63175;63175;1;0;1;-30;30
6403;6433;0;0.0005;0;63175;63175;63175;1;0;1;-30;30
6503;6533;0;0.0005;0;63175;63175;63175;1;0;1;-30;30
7001;7031;0;0.0005;0;63175;63175;63175;1;0;1;-30;30
7002;7032;0;0.0005;0;63175;63175;63175;1;0;1;-30;30
8003;8033;0;0.0005;0;63175;63175;63175;1;0;1;-30;30
8004;8034;0;0.0005;0;63175;63175;63175;1;0;1;-30;30
